Circuit: * C:\Users\pablo\Desktop\SC_generator\01_Design\02_LTSpice_sim\SC_generator.asc

Limiting fall time of source v:u10:1 to 1e+011
Limiting fall time of source v:u6:1 to 1e+011
u7:1:v_sm: Missing value, assumed 0V @ DC
Direct Newton iteration failed to find .op point.  (Use ".option noopiter" to skip.)
Starting Gmin stepping
Gmin = 10
Gmin = 1.07374
Gmin = 0.115292
Gmin = 0.0123794
Gmin = 0.00132923
vernier = 0.5
vernier = 0.25
vernier = 0.125
vernier = 0.0625
Gmin = 0.00100083
vernier = 0.03125
vernier = 0.015625
vernier = 0.0078125
vernier = 0.00390625
vernier = 0.00195313
Gmin = 0.00100083
vernier = 0.000976563
vernier = 0.000488281
Gmin = 0
Gmin stepping failed

Starting source stepping with srcstepmethod=0
Source Step = 3.0303%
Source Step = 33.3333%
Source Step = 46.9697%
Source Step = 54.5455%
Source Step = 62.1212%
Source Step = 69.697%
Source Step = 77.2727%
vernier = 0.375
Source Step = 86.7424%
Source Step = 98.1061%
Source stepping succeeded in finding the operating point.

Ignoring empty pin current: Ix(u2:s0)
Ignoring empty pin current: Ix(u3:s0)
Ignoring empty pin current: Ix(u4:s0)
Ignoring empty pin current: Ix(u5:s0)
Ignoring empty pin current: Ix(u9:s0)
Ignoring empty pin current: Ix(u2:s0)
Ignoring empty pin current: Ix(u3:s0)
Ignoring empty pin current: Ix(u4:s0)
Ignoring empty pin current: Ix(u5:s0)
Ignoring empty pin current: Ix(u9:s0)

Date: Sat May 12 14:15:31 2018
Total elapsed time: 2.516 seconds.

tnom = 27
temp = 27
method = modified trap
totiter = 28755
traniter = 26616
tranpoints = 10053
accept = 7825
rejected = 2228
matrix size = 132
fillins = 244
solver = Alternate
Thread vector: 54.7/30.0[4] 11.8/6.6[4] 11.8/4.1[4] 2.0/2.0[2]  2592/500
Matrix Compiler1: 32.90 KB object code size  11.5/7.9/[5.8]
Matrix Compiler2: 16.15 KB object code size  3.6/4.5/[1.6]

