Circuit: * C:\Users\pablo\Google Drive\PAM_projects_github\2017_2018\SC_generator\01_Design\02_LTSpice_sim\SC_generator.asc

Warning: Multiple definitions of model "bc817-40t116" Type: BJT
Warning: Multiple definitions of model "bc817-25t116" Type: BJT
Warning: Multiple definitions of model "bc847bt116" Type: BJT
Warning: Multiple definitions of model "bc807-40t116" Type: BJT
Warning: Multiple definitions of model "bc807-25t116" Type: BJT
Warning: Multiple definitions of model "bc857bt116" Type: BJT
Limiting fall time of source v:u10:1 to 1e+011
Limiting fall time of source v:u6:1 to 1e+011
u7:1:v_sm: Missing value, assumed 0V @ DC
Direct Newton iteration failed to find .op point.  (Use ".option noopiter" to skip.)
Starting Gmin stepping
Gmin = 10
Gmin = 1.07374
Gmin = 0.115292
Gmin = 0.0123794
Gmin = 0.00132923
vernier = 0.5
vernier = 0.25
vernier = 0.125
vernier = 0.0625
Gmin = 0.00100083
vernier = 0.03125
vernier = 0.015625
vernier = 0.0078125
vernier = 0.00390625
vernier = 0.00195313
Gmin = 0.00100083
vernier = 0.000976563
vernier = 0.000488281
Gmin = 0
Gmin stepping failed

Starting source stepping with srcstepmethod=0
Source Step = 3.0303%
Source Step = 33.3333%
Source Step = 46.9697%
Source Step = 54.5455%
Source Step = 62.1212%
Source Step = 69.697%
Source Step = 77.2727%
vernier = 0.375
Source Step = 86.7424%
Source Step = 98.1061%
Source stepping succeeded in finding the operating point.

Ignoring empty pin current: Ix(u2:s0)
Ignoring empty pin current: Ix(u3:s0)
Ignoring empty pin current: Ix(u4:s0)
Ignoring empty pin current: Ix(u5:s0)
Ignoring empty pin current: Ix(u9:s0)
Ignoring empty pin current: Ix(u2:s0)
Ignoring empty pin current: Ix(u3:s0)
Ignoring empty pin current: Ix(u4:s0)
Ignoring empty pin current: Ix(u5:s0)
Ignoring empty pin current: Ix(u9:s0)
Heightened Def Con from 0.146601 to 0.146601
Heightened Def Con from 0.452492 to 0.452492

Date: Mon May 28 21:48:14 2018
Total elapsed time: 2.241 seconds.

tnom = 27
temp = 27
method = modified trap
totiter = 26308
traniter = 24169
tranpoints = 9181
accept = 7274
rejected = 1909
matrix size = 132
fillins = 244
solver = Alternate
Thread vector: 56.0/31.4[4] 11.8/6.5[4] 9.7/3.4[4] 2.4/2.0[4]  2592/500
Matrix Compiler1: 32.88 KB object code size  11.0/5.7/[4.4]
Matrix Compiler2: 16.16 KB object code size  3.3/4.9/[1.8]

